                                  MODFLOW-2000
      U.S. GEOLOGICAL SURVEY MODULAR FINITE-DIFFERENCE GROUND-WATER FLOW MODEL
                           VERSION 1.19.01 03/25/2010


 This model run produced both GLOBAL and LIST files.  This is the GLOBAL file.

 GLOBAL LISTING FILE: Taoerhe.glo
                         UNIT  701

 OPENING Taoerhe.out
 FILE TYPE:LIST   UNIT  702   STATUS:REPLACE
 FORMAT:FORMATTED              ACCESS:SEQUENTIAL          

 OPENING Taoerhe.hed
 FILE TYPE:DATA(BINARY)   UNIT  730   STATUS:UNKNOWN
 FORMAT:BINARY                 ACCESS:SEQUENTIAL          

 OPENING Taoerhe.ccf
 FILE TYPE:DATA(BINARY)   UNIT  740   STATUS:UNKNOWN
 FORMAT:BINARY                 ACCESS:SEQUENTIAL          

 OPENING Taoerhe.lmt6
 FILE TYPE:LMT6   UNIT  718   STATUS:OLD    
 FORMAT:FORMATTED              ACCESS:SEQUENTIAL          

 OPENING Taoerhe.obs
 FILE TYPE:OBS   UNIT  750   STATUS:OLD    
 FORMAT:FORMATTED              ACCESS:SEQUENTIAL          

 OPENING Taoerhe.hob
 FILE TYPE:HOB   UNIT  751   STATUS:OLD    
 FORMAT:FORMATTED              ACCESS:SEQUENTIAL          

 OPENING Taoerhe.rvob
 FILE TYPE:RVOB   UNIT  752   STATUS:OLD    
 FORMAT:FORMATTED              ACCESS:SEQUENTIAL          

 OPENING Taoerhe.dis
 FILE TYPE:DIS   UNIT  719   STATUS:OLD    
 FORMAT:FORMATTED              ACCESS:SEQUENTIAL          

 OPENING Taoerhe.ba6
 FILE TYPE:BAS6   UNIT  703   STATUS:OLD    
 FORMAT:FORMATTED              ACCESS:SEQUENTIAL          

 OPENING Taoerhe.lpf
 FILE TYPE:LPF   UNIT  704   STATUS:OLD    
 FORMAT:FORMATTED              ACCESS:SEQUENTIAL          

 OPENING Taoerhe.oc
 FILE TYPE:OC   UNIT  715   STATUS:OLD    
 FORMAT:FORMATTED              ACCESS:SEQUENTIAL          

 OPENING Taoerhe.rch
 FILE TYPE:RCH   UNIT  716   STATUS:OLD    
 FORMAT:FORMATTED              ACCESS:SEQUENTIAL          

 OPENING Taoerhe.riv
 FILE TYPE:RIV   UNIT  708   STATUS:OLD    
 FORMAT:FORMATTED              ACCESS:SEQUENTIAL          

 OPENING Taoerhe.wel
 FILE TYPE:WEL   UNIT  709   STATUS:OLD    
 FORMAT:FORMATTED              ACCESS:SEQUENTIAL          

 OPENING Taoerhe.pcg
 FILE TYPE:PCG   UNIT  714   STATUS:OLD    
 FORMAT:FORMATTED              ACCESS:SEQUENTIAL          

 THE FREE FORMAT OPTION HAS BEEN SELECTED

 DISCRETIZATION INPUT DATA READ FROM UNIT  719
 # MF2K DISCRETIZATION FILE
 #
 #
 # NLAY NROW NCOL NPER TIMEUNITS LENUNITS
    1 LAYERS        69 ROWS        76 COLUMNS
   12 STRESS PERIOD(S) IN SIMULATION
 MODEL TIME UNIT IS DAYS
 MODEL LENGTH UNIT IS METERS
 THE GROUND-WATER TRANSPORT PROCESS IS INACTIVE

 THE OBSERVATION PROCESS IS ACTIVE
 THE SENSITIVITY PROCESS IS INACTIVE
 THE PARAMETER-ESTIMATION PROCESS IS INACTIVE

 MODE: FORWARD WITH OBSERVATIONS

  Confining bed flag for each layer:
   0

      47341  ELEMENTS OF GX ARRAY USED OUT OF      47341
       5244  ELEMENTS OF GZ ARRAY USED OUT OF       5244
       5244  ELEMENTS OF IG ARRAY USED OUT OF       5244

                     DELR =   990.782    

                     DELC =   989.872    



           TOP ELEVATION OF LAYER 1
 READING ON UNIT  719 WITH FORMAT: (FREE)              



             MODEL LAYER BOTTOM EL. FOR LAYER   1
 READING ON UNIT  719 WITH FORMAT: (FREE)              


 STRESS PERIOD     LENGTH       TIME STEPS     MULTIPLIER FOR DELT    SS FLAG
 ----------------------------------------------------------------------------
        1         31.00000          3                    1.000         TR
        2         29.00000          3                    1.000         TR
        3         31.00000          3                    1.000         TR
        4         30.00000          3                    1.000         TR
        5         31.00000          3                    1.000         TR
        6         30.00000          3                    1.000         TR
        7         31.00000          3                    1.000         TR
        8         31.00000          3                    1.000         TR
        9         30.00000          3                    1.000         TR
       10         31.00000          3                    1.000         TR
       11         30.00000          3                    1.000         TR
       12         31.00000          3                    1.000         TR

 TRANSIENT SIMULATION




 LPF1 -- LAYER PROPERTY FLOW PACKAGE, VERSION 1, 1/11/2000
         INPUT READ FROM UNIT  704
 CELL-BY-CELL FLOWS WILL BE SAVED ON UNIT  740
 HEAD AT CELLS THAT CONVERT TO DRY=  -888.00    
 No named parameters

   LAYER FLAGS:
 LAYER       LAYTYP        LAYAVG         CHANI        LAYVKA        LAYWET
 ---------------------------------------------------------------------------
    1             1             0    -1.000E+00             1             0

   INTERPRETATION OF LAYER FLAGS:
                        INTERBLOCK     HORIZONTAL    DATA IN
         LAYER TYPE   TRANSMISSIVITY   ANISOTROPY   ARRAY VKA   WETTABILITY
 LAYER      (LAYTYP)      (LAYAVG)       (CHANI)      (LAYVKA)      (LAYWET)
 ---------------------------------------------------------------------------
    1   CONVERTIBLE      HARMONIC      VARIABLE    ANISOTROPY  NON-WETTABLE

      26220 ELEMENTS IN X ARRAY ARE USED BY LPF
          6 ELEMENTS IN IX ARRAY ARE USED BY LPF

 PCG2 -- CONJUGATE GRADIENT SOLUTION PACKAGE, VERSION 2.4, 12/29/98
 MAXIMUM OF    100 CALLS OF SOLUTION ROUTINE
 MAXIMUM OF    100 INTERNAL ITERATIONS PER CALL TO SOLUTION ROUTINE
 MATRIX PRECONDITIONING TYPE :    1
      30488 ELEMENTS IN X ARRAY ARE USED BY PCG
      70000 ELEMENTS IN IX ARRAY ARE USED BY PCG
      20976 ELEMENTS IN Z ARRAY ARE USED BY PCG

 OBS1BAS6 -- OBSERVATION PROCESS, VERSION 1.0, 4/27/99
 INPUT READ FROM UNIT 750
 OBSERVATION GRAPH-DATA OUTPUT FILES
 WILL BE PRINTED AND NAMED USING THE BASE: Taoerhe

 HEAD OBSERVATIONS -- INPUT READ FROM UNIT 751
 #           CoverageGUID ObjectType ID X Y Time OBNAME
 #GMSCOMMENT 063cd68d-8a29-41c2-a200-400c5862f5de POINT 1534, 452470.0, 5045520.0 43862.0 hed1
 #GMSCOMMENT 063cd68d-8a29-41c2-a200-400c5862f5de POINT 1534, 452470.0, 5045520.0 43891.0 hed2
 #GMSCOMMENT 063cd68d-8a29-41c2-a200-400c5862f5de POINT 1534, 452470.0, 5045520.0 43922.0 hed3
 #GMSCOMMENT 063cd68d-8a29-41c2-a200-400c5862f5de POINT 1534, 452470.0, 5045520.0 43952.0 hed4
 #GMSCOMMENT 063cd68d-8a29-41c2-a200-400c5862f5de POINT 1534, 452470.0, 5045520.0 43983.0 hed5
 #GMSCOMMENT 063cd68d-8a29-41c2-a200-400c5862f5de POINT 1534, 452470.0, 5045520.0 44013.0 hed6
 #GMSCOMMENT 063cd68d-8a29-41c2-a200-400c5862f5de POINT 1534, 452470.0, 5045520.0 44044.0 hed7
 #GMSCOMMENT 063cd68d-8a29-41c2-a200-400c5862f5de POINT 1534, 452470.0, 5045520.0 44075.0 hed8
 #GMSCOMMENT 063cd68d-8a29-41c2-a200-400c5862f5de POINT 1534, 452470.0, 5045520.0 44105.0 hed9
 #GMSCOMMENT 063cd68d-8a29-41c2-a200-400c5862f5de POINT 1534, 452470.0, 5045520.0 44136.0 hed10
 #GMSCOMMENT 063cd68d-8a29-41c2-a200-400c5862f5de POINT 1534, 452470.0, 5045520.0 44166.0 hed11
 #GMSCOMMENT 063cd68d-8a29-41c2-a200-400c5862f5de POINT 1534, 452470.0, 5045520.0 44197.0 hed12
 #GMSCOMMENT 063cd68d-8a29-41c2-a200-400c5862f5de POINT 1534, 452470.0, 5045520.0 ts_0 no_hed13
 #GMSCOMMENT 063cd68d-8a29-41c2-a200-400c5862f5de POINT 1534, 452470.0, 5045520.0 ts_1 no_hed14
 #GMSCOMMENT 063cd68d-8a29-41c2-a200-400c5862f5de POINT 1534, 452470.0, 5045520.0 ts_2 no_hed15
 #GMSCOMMENT 063cd68d-8a29-41c2-a200-400c5862f5de POINT 1534, 452470.0, 5045520.0 ts_3 no_hed16
 #GMSCOMMENT 063cd68d-8a29-41c2-a200-400c5862f5de POINT 1534, 452470.0, 5045520.0 ts_4 no_hed17
 #GMSCOMMENT 063cd68d-8a29-41c2-a200-400c5862f5de POINT 1534, 452470.0, 5045520.0 ts_5 no_hed18
 #GMSCOMMENT 063cd68d-8a29-41c2-a200-400c5862f5de POINT 1534, 452470.0, 5045520.0 ts_6 no_hed19
 #GMSCOMMENT 063cd68d-8a29-41c2-a200-400c5862f5de POINT 1534, 452470.0, 5045520.0 ts_7 no_hed20
 #GMSCOMMENT 063cd68d-8a29-41c2-a200-400c5862f5de POINT 1534, 452470.0, 5045520.0 ts_8 no_hed21
 #GMSCOMMENT 063cd68d-8a29-41c2-a200-400c5862f5de POINT 1534, 452470.0, 5045520.0 ts_9 no_hed22
 #GMSCOMMENT 063cd68d-8a29-41c2-a200-400c5862f5de POINT 1534, 452470.0, 5045520.0 ts_10 no_hed23
 #GMSCOMMENT 063cd68d-8a29-41c2-a200-400c5862f5de POINT 1534, 452470.0, 5045520.0 ts_11 no_hed24
 #GMSCOMMENT 063cd68d-8a29-41c2-a200-400c5862f5de POINT 1534, 452470.0, 5045520.0 ts_12 no_hed25
 #GMSCOMMENT 063cd68d-8a29-41c2-a200-400c5862f5de POINT 1534, 452470.0, 5045520.0 ts_13 no_hed26
 #GMSCOMMENT 063cd68d-8a29-41c2-a200-400c5862f5de POINT 1534, 452470.0, 5045520.0 ts_14 no_hed27
 #GMSCOMMENT 063cd68d-8a29-41c2-a200-400c5862f5de POINT 1534, 452470.0, 5045520.0 ts_15 no_hed28
 #GMSCOMMENT 063cd68d-8a29-41c2-a200-400c5862f5de POINT 1534, 452470.0, 5045520.0 ts_16 no_hed29
 #GMSCOMMENT 063cd68d-8a29-41c2-a200-400c5862f5de POINT 1534, 452470.0, 5045520.0 ts_17 no_hed30
 #GMSCOMMENT 063cd68d-8a29-41c2-a200-400c5862f5de POINT 1534, 452470.0, 5045520.0 ts_18 no_hed31
 #GMSCOMMENT 063cd68d-8a29-41c2-a200-400c5862f5de POINT 1534, 452470.0, 5045520.0 ts_19 no_hed32
 #GMSCOMMENT 063cd68d-8a29-41c2-a200-400c5862f5de POINT 1534, 452470.0, 5045520.0 ts_20 no_hed33
 #GMSCOMMENT 063cd68d-8a29-41c2-a200-400c5862f5de POINT 1534, 452470.0, 5045520.0 ts_21 no_hed34
 #GMSCOMMENT 063cd68d-8a29-41c2-a200-400c5862f5de POINT 1534, 452470.0, 5045520.0 ts_22 no_hed35
 #GMSCOMMENT 063cd68d-8a29-41c2-a200-400c5862f5de POINT 1534, 452470.0, 5045520.0 ts_23 no_hed36
 #GMSCOMMENT 063cd68d-8a29-41c2-a200-400c5862f5de POINT 1534, 452470.0, 5045520.0 ts_24 no_hed37
 #GMSCOMMENT 063cd68d-8a29-41c2-a200-400c5862f5de POINT 1534, 452470.0, 5045520.0 ts_25 no_hed38
 #GMSCOMMENT 063cd68d-8a29-41c2-a200-400c5862f5de POINT 1534, 452470.0, 5045520.0 ts_26 no_hed39
 #GMSCOMMENT 063cd68d-8a29-41c2-a200-400c5862f5de POINT 1534, 452470.0, 5045520.0 ts_27 no_hed40
 #GMSCOMMENT 063cd68d-8a29-41c2-a200-400c5862f5de POINT 1534, 452470.0, 5045520.0 ts_28 no_hed41
 #GMSCOMMENT 063cd68d-8a29-41c2-a200-400c5862f5de POINT 1534, 452470.0, 5045520.0 ts_29 no_hed42
 #GMSCOMMENT 063cd68d-8a29-41c2-a200-400c5862f5de POINT 1534, 452470.0, 5045520.0 ts_30 no_hed43
 #GMSCOMMENT 063cd68d-8a29-41c2-a200-400c5862f5de POINT 1534, 452470.0, 5045520.0 ts_31 no_hed44
 #GMSCOMMENT 063cd68d-8a29-41c2-a200-400c5862f5de POINT 1534, 452470.0, 5045520.0 ts_32 no_hed45
 #GMSCOMMENT 063cd68d-8a29-41c2-a200-400c5862f5de POINT 1534, 452470.0, 5045520.0 ts_33 no_hed46
 #GMSCOMMENT 063cd68d-8a29-41c2-a200-400c5862f5de POINT 1534, 452470.0, 5045520.0 ts_34 no_hed47
 #GMSCOMMENT 063cd68d-8a29-41c2-a200-400c5862f5de POINT 1534, 452470.0, 5045520.0 ts_35 no_hed48
 #GMSCOMMENT 063cd68d-8a29-41c2-a200-400c5862f5de POINT 1535, 452970.0, 5056880.0 43862.0 hed49
 #GMSCOMMENT 063cd68d-8a29-41c2-a200-400c5862f5de POINT 1535, 452970.0, 5056880.0 43891.0 hed50
 #GMSCOMMENT 063cd68d-8a29-41c2-a200-400c5862f5de POINT 1535, 452970.0, 5056880.0 43922.0 hed51
 #GMSCOMMENT 063cd68d-8a29-41c2-a200-400c5862f5de POINT 1535, 452970.0, 5056880.0 43952.0 hed52
 #GMSCOMMENT 063cd68d-8a29-41c2-a200-400c5862f5de POINT 1535, 452970.0, 5056880.0 43983.0 hed53
 #GMSCOMMENT 063cd68d-8a29-41c2-a200-400c5862f5de POINT 1535, 452970.0, 5056880.0 44013.0 hed54
 #GMSCOMMENT 063cd68d-8a29-41c2-a200-400c5862f5de POINT 1535, 452970.0, 5056880.0 44044.0 hed55
 #GMSCOMMENT 063cd68d-8a29-41c2-a200-400c5862f5de POINT 1535, 452970.0, 5056880.0 44075.0 hed56
 #GMSCOMMENT 063cd68d-8a29-41c2-a200-400c5862f5de POINT 1535, 452970.0, 5056880.0 44105.0 hed57
 #GMSCOMMENT 063cd68d-8a29-41c2-a200-400c5862f5de POINT 1535, 452970.0, 5056880.0 44136.0 hed58
 #GMSCOMMENT 063cd68d-8a29-41c2-a200-400c5862f5de POINT 1535, 452970.0, 5056880.0 44166.0 hed59
 #GMSCOMMENT 063cd68d-8a29-41c2-a200-400c5862f5de POINT 1535, 452970.0, 5056880.0 44197.0 hed60
 #GMSCOMMENT 063cd68d-8a29-41c2-a200-400c5862f5de POINT 1535, 452970.0, 5056880.0 ts_0 no_hed61
 #GMSCOMMENT 063cd68d-8a29-41c2-a200-400c5862f5de POINT 1535, 452970.0, 5056880.0 ts_1 no_hed62
 #GMSCOMMENT 063cd68d-8a29-41c2-a200-400c5862f5de POINT 1535, 452970.0, 5056880.0 ts_2 no_hed63
 #GMSCOMMENT 063cd68d-8a29-41c2-a200-400c5862f5de POINT 1535, 452970.0, 5056880.0 ts_3 no_hed64
 #GMSCOMMENT 063cd68d-8a29-41c2-a200-400c5862f5de POINT 1535, 452970.0, 5056880.0 ts_4 no_hed65
 #GMSCOMMENT 063cd68d-8a29-41c2-a200-400c5862f5de POINT 1535, 452970.0, 5056880.0 ts_5 no_hed66
 #GMSCOMMENT 063cd68d-8a29-41c2-a200-400c5862f5de POINT 1535, 452970.0, 5056880.0 ts_6 no_hed67
 #GMSCOMMENT 063cd68d-8a29-41c2-a200-400c5862f5de POINT 1535, 452970.0, 5056880.0 ts_7 no_hed68
 #GMSCOMMENT 063cd68d-8a29-41c2-a200-400c5862f5de POINT 1535, 452970.0, 5056880.0 ts_8 no_hed69
 #GMSCOMMENT 063cd68d-8a29-41c2-a200-400c5862f5de POINT 1535, 452970.0, 5056880.0 ts_9 no_hed70
 #GMSCOMMENT 063cd68d-8a29-41c2-a200-400c5862f5de POINT 1535, 452970.0, 5056880.0 ts_10 no_hed71
 #GMSCOMMENT 063cd68d-8a29-41c2-a200-400c5862f5de POINT 1535, 452970.0, 5056880.0 ts_11 no_hed72
 #GMSCOMMENT 063cd68d-8a29-41c2-a200-400c5862f5de POINT 1535, 452970.0, 5056880.0 ts_12 no_hed73
 #GMSCOMMENT 063cd68d-8a29-41c2-a200-400c5862f5de POINT 1535, 452970.0, 5056880.0 ts_13 no_hed74
 #GMSCOMMENT 063cd68d-8a29-41c2-a200-400c5862f5de POINT 1535, 452970.0, 5056880.0 ts_14 no_hed75
 #GMSCOMMENT 063cd68d-8a29-41c2-a200-400c5862f5de POINT 1535, 452970.0, 5056880.0 ts_15 no_hed76
 #GMSCOMMENT 063cd68d-8a29-41c2-a200-400c5862f5de POINT 1535, 452970.0, 5056880.0 ts_16 no_hed77
 #GMSCOMMENT 063cd68d-8a29-41c2-a200-400c5862f5de POINT 1535, 452970.0, 5056880.0 ts_17 no_hed78
 #GMSCOMMENT 063cd68d-8a29-41c2-a200-400c5862f5de POINT 1535, 452970.0, 5056880.0 ts_18 no_hed79
 #GMSCOMMENT 063cd68d-8a29-41c2-a200-400c5862f5de POINT 1535, 452970.0, 5056880.0 ts_19 no_hed80
 #GMSCOMMENT 063cd68d-8a29-41c2-a200-400c5862f5de POINT 1535, 452970.0, 5056880.0 ts_20 no_hed81
 #GMSCOMMENT 063cd68d-8a29-41c2-a200-400c5862f5de POINT 1535, 452970.0, 5056880.0 ts_21 no_hed82
 #GMSCOMMENT 063cd68d-8a29-41c2-a200-400c5862f5de POINT 1535, 452970.0, 5056880.0 ts_22 no_hed83
 #GMSCOMMENT 063cd68d-8a29-41c2-a200-400c5862f5de POINT 1535, 452970.0, 5056880.0 ts_23 no_hed84
 #GMSCOMMENT 063cd68d-8a29-41c2-a200-400c5862f5de POINT 1535, 452970.0, 5056880.0 ts_24 no_hed85
 #GMSCOMMENT 063cd68d-8a29-41c2-a200-400c5862f5de POINT 1535, 452970.0, 5056880.0 ts_25 no_hed86
 #GMSCOMMENT 063cd68d-8a29-41c2-a200-400c5862f5de POINT 1535, 452970.0, 5056880.0 ts_26 no_hed87
 #GMSCOMMENT 063cd68d-8a29-41c2-a200-400c5862f5de POINT 1535, 452970.0, 5056880.0 ts_27 no_hed88
 #GMSCOMMENT 063cd68d-8a29-41c2-a200-400c5862f5de POINT 1535, 452970.0, 5056880.0 ts_28 no_hed89
 #GMSCOMMENT 063cd68d-8a29-41c2-a200-400c5862f5de POINT 1535, 452970.0, 5056880.0 ts_29 no_hed90
 #GMSCOMMENT 063cd68d-8a29-41c2-a200-400c5862f5de POINT 1535, 452970.0, 5056880.0 ts_30 no_hed91
 #GMSCOMMENT 063cd68d-8a29-41c2-a200-400c5862f5de POINT 1535, 452970.0, 5056880.0 ts_31 no_hed92
 #GMSCOMMENT 063cd68d-8a29-41c2-a200-400c5862f5de POINT 1535, 452970.0, 5056880.0 ts_32 no_hed93
 #GMSCOMMENT 063cd68d-8a29-41c2-a200-400c5862f5de POINT 1535, 452970.0, 5056880.0 ts_33 no_hed94
 #GMSCOMMENT 063cd68d-8a29-41c2-a200-400c5862f5de POINT 1535, 452970.0, 5056880.0 ts_34 no_hed95
 #GMSCOMMENT 063cd68d-8a29-41c2-a200-400c5862f5de POINT 1535, 452970.0, 5056880.0 ts_35 no_hed96
 #GMSCOMMENT 063cd68d-8a29-41c2-a200-400c5862f5de POINT 1536, 465020.0, 5057970.0 43862.0 hed97
 #GMSCOMMENT 063cd68d-8a29-41c2-a200-400c5862f5de POINT 1536, 465020.0, 5057970.0 43891.0 hed98
 #GMSCOMMENT 063cd68d-8a29-41c2-a200-400c5862f5de POINT 1536, 465020.0, 5057970.0 43922.0 hed99
 #GMSCOMMENT 063cd68d-8a29-41c2-a200-400c5862f5de POINT 1536, 465020.0, 5057970.0 43952.0 hed100
 #GMSCOMMENT 063cd68d-8a29-41c2-a200-400c5862f5de POINT 1536, 465020.0, 5057970.0 43983.0 hed101
 #GMSCOMMENT 063cd68d-8a29-41c2-a200-400c5862f5de POINT 1536, 465020.0, 5057970.0 44013.0 hed102
 #GMSCOMMENT 063cd68d-8a29-41c2-a200-400c5862f5de POINT 1536, 465020.0, 5057970.0 44044.0 hed103
 #GMSCOMMENT 063cd68d-8a29-41c2-a200-400c5862f5de POINT 1536, 465020.0, 5057970.0 44075.0 hed104
 #GMSCOMMENT 063cd68d-8a29-41c2-a200-400c5862f5de POINT 1536, 465020.0, 5057970.0 44105.0 hed105
 #GMSCOMMENT 063cd68d-8a29-41c2-a200-400c5862f5de POINT 1536, 465020.0, 5057970.0 44136.0 hed106
 #GMSCOMMENT 063cd68d-8a29-41c2-a200-400c5862f5de POINT 1536, 465020.0, 5057970.0 44166.0 hed107
 #GMSCOMMENT 063cd68d-8a29-41c2-a200-400c5862f5de POINT 1536, 465020.0, 5057970.0 44197.0 hed108
 #GMSCOMMENT 063cd68d-8a29-41c2-a200-400c5862f5de POINT 1536, 465020.0, 5057970.0 ts_0 no_hed109
 #GMSCOMMENT 063cd68d-8a29-41c2-a200-400c5862f5de POINT 1536, 465020.0, 5057970.0 ts_1 no_hed110
 #GMSCOMMENT 063cd68d-8a29-41c2-a200-400c5862f5de POINT 1536, 465020.0, 5057970.0 ts_2 no_hed111
 #GMSCOMMENT 063cd68d-8a29-41c2-a200-400c5862f5de POINT 1536, 465020.0, 5057970.0 ts_3 no_hed112
 #GMSCOMMENT 063cd68d-8a29-41c2-a200-400c5862f5de POINT 1536, 465020.0, 5057970.0 ts_4 no_hed113
 #GMSCOMMENT 063cd68d-8a29-41c2-a200-400c5862f5de POINT 1536, 465020.0, 5057970.0 ts_5 no_hed114
 #GMSCOMMENT 063cd68d-8a29-41c2-a200-400c5862f5de POINT 1536, 465020.0, 5057970.0 ts_6 no_hed115
 #GMSCOMMENT 063cd68d-8a29-41c2-a200-400c5862f5de POINT 1536, 465020.0, 5057970.0 ts_7 no_hed116
 #GMSCOMMENT 063cd68d-8a29-41c2-a200-400c5862f5de POINT 1536, 465020.0, 5057970.0 ts_8 no_hed117
 #GMSCOMMENT 063cd68d-8a29-41c2-a200-400c5862f5de POINT 1536, 465020.0, 5057970.0 ts_9 no_hed118
 #GMSCOMMENT 063cd68d-8a29-41c2-a200-400c5862f5de POINT 1536, 465020.0, 5057970.0 ts_10 no_hed119
 #GMSCOMMENT 063cd68d-8a29-41c2-a200-400c5862f5de POINT 1536, 465020.0, 5057970.0 ts_11 no_hed120
 #GMSCOMMENT 063cd68d-8a29-41c2-a200-400c5862f5de POINT 1536, 465020.0, 5057970.0 ts_12 no_hed121
 #GMSCOMMENT 063cd68d-8a29-41c2-a200-400c5862f5de POINT 1536, 465020.0, 5057970.0 ts_13 no_hed122
 #GMSCOMMENT 063cd68d-8a29-41c2-a200-400c5862f5de POINT 1536, 465020.0, 5057970.0 ts_14 no_hed123
 #GMSCOMMENT 063cd68d-8a29-41c2-a200-400c5862f5de POINT 1536, 465020.0, 5057970.0 ts_15 no_hed124
 #GMSCOMMENT 063cd68d-8a29-41c2-a200-400c5862f5de POINT 1536, 465020.0, 5057970.0 ts_16 no_hed125
 #GMSCOMMENT 063cd68d-8a29-41c2-a200-400c5862f5de POINT 1536, 465020.0, 5057970.0 ts_17 no_hed126
 #GMSCOMMENT 063cd68d-8a29-41c2-a200-400c5862f5de POINT 1536, 465020.0, 5057970.0 ts_18 no_hed127
 #GMSCOMMENT 063cd68d-8a29-41c2-a200-400c5862f5de POINT 1536, 465020.0, 5057970.0 ts_19 no_hed128
 #GMSCOMMENT 063cd68d-8a29-41c2-a200-400c5862f5de POINT 1536, 465020.0, 5057970.0 ts_20 no_hed129
 #GMSCOMMENT 063cd68d-8a29-41c2-a200-400c5862f5de POINT 1536, 465020.0, 5057970.0 ts_21 no_hed130
 #GMSCOMMENT 063cd68d-8a29-41c2-a200-400c5862f5de POINT 1536, 465020.0, 5057970.0 ts_22 no_hed131
 #GMSCOMMENT 063cd68d-8a29-41c2-a200-400c5862f5de POINT 1536, 465020.0, 5057970.0 ts_23 no_hed132
 #GMSCOMMENT 063cd68d-8a29-41c2-a200-400c5862f5de POINT 1536, 465020.0, 5057970.0 ts_24 no_hed133
 #GMSCOMMENT 063cd68d-8a29-41c2-a200-400c5862f5de POINT 1536, 465020.0, 5057970.0 ts_25 no_hed134
 #GMSCOMMENT 063cd68d-8a29-41c2-a200-400c5862f5de POINT 1536, 465020.0, 5057970.0 ts_26 no_hed135
 #GMSCOMMENT 063cd68d-8a29-41c2-a200-400c5862f5de POINT 1536, 465020.0, 5057970.0 ts_27 no_hed136
 #GMSCOMMENT 063cd68d-8a29-41c2-a200-400c5862f5de POINT 1536, 465020.0, 5057970.0 ts_28 no_hed137
 #GMSCOMMENT 063cd68d-8a29-41c2-a200-400c5862f5de POINT 1536, 465020.0, 5057970.0 ts_29 no_hed138
 #GMSCOMMENT 063cd68d-8a29-41c2-a200-400c5862f5de POINT 1536, 465020.0, 5057970.0 ts_30 no_hed139
 #GMSCOMMENT 063cd68d-8a29-41c2-a200-400c5862f5de POINT 1536, 465020.0, 5057970.0 ts_31 no_hed140
 #GMSCOMMENT 063cd68d-8a29-41c2-a200-400c5862f5de POINT 1536, 465020.0, 5057970.0 ts_32 no_hed141
 #GMSCOMMENT 063cd68d-8a29-41c2-a200-400c5862f5de POINT 1536, 465020.0, 5057970.0 ts_33 no_hed142
 #GMSCOMMENT 063cd68d-8a29-41c2-a200-400c5862f5de POINT 1536, 465020.0, 5057970.0 ts_34 no_hed143
 #GMSCOMMENT 063cd68d-8a29-41c2-a200-400c5862f5de POINT 1536, 465020.0, 5057970.0 ts_35 no_hed144
 #GMSCOMMENT 063cd68d-8a29-41c2-a200-400c5862f5de POINT 1537, 488130.0, 5063750.0 43862.0 hed145
 #GMSCOMMENT 063cd68d-8a29-41c2-a200-400c5862f5de POINT 1537, 488130.0, 5063750.0 43891.0 hed146
 #GMSCOMMENT 063cd68d-8a29-41c2-a200-400c5862f5de POINT 1537, 488130.0, 5063750.0 43922.0 hed147
 #GMSCOMMENT 063cd68d-8a29-41c2-a200-400c5862f5de POINT 1537, 488130.0, 5063750.0 43952.0 hed148
 #GMSCOMMENT 063cd68d-8a29-41c2-a200-400c5862f5de POINT 1537, 488130.0, 5063750.0 43983.0 hed149
 #GMSCOMMENT 063cd68d-8a29-41c2-a200-400c5862f5de POINT 1537, 488130.0, 5063750.0 44013.0 hed150
 #GMSCOMMENT 063cd68d-8a29-41c2-a200-400c5862f5de POINT 1537, 488130.0, 5063750.0 44044.0 hed151
 #GMSCOMMENT 063cd68d-8a29-41c2-a200-400c5862f5de POINT 1537, 488130.0, 5063750.0 44075.0 hed152
 #GMSCOMMENT 063cd68d-8a29-41c2-a200-400c5862f5de POINT 1537, 488130.0, 5063750.0 44105.0 hed153
 #GMSCOMMENT 063cd68d-8a29-41c2-a200-400c5862f5de POINT 1537, 488130.0, 5063750.0 44136.0 hed154
 #GMSCOMMENT 063cd68d-8a29-41c2-a200-400c5862f5de POINT 1537, 488130.0, 5063750.0 44166.0 hed155
 #GMSCOMMENT 063cd68d-8a29-41c2-a200-400c5862f5de POINT 1537, 488130.0, 5063750.0 44197.0 hed156
 #GMSCOMMENT 063cd68d-8a29-41c2-a200-400c5862f5de POINT 1537, 488130.0, 5063750.0 ts_0 no_hed157
 #GMSCOMMENT 063cd68d-8a29-41c2-a200-400c5862f5de POINT 1537, 488130.0, 5063750.0 ts_1 no_hed158
 #GMSCOMMENT 063cd68d-8a29-41c2-a200-400c5862f5de POINT 1537, 488130.0, 5063750.0 ts_2 no_hed159
 #GMSCOMMENT 063cd68d-8a29-41c2-a200-400c5862f5de POINT 1537, 488130.0, 5063750.0 ts_3 no_hed160
 #GMSCOMMENT 063cd68d-8a29-41c2-a200-400c5862f5de POINT 1537, 488130.0, 5063750.0 ts_4 no_hed161
 #GMSCOMMENT 063cd68d-8a29-41c2-a200-400c5862f5de POINT 1537, 488130.0, 5063750.0 ts_5 no_hed162
 #GMSCOMMENT 063cd68d-8a29-41c2-a200-400c5862f5de POINT 1537, 488130.0, 5063750.0 ts_6 no_hed163
 #GMSCOMMENT 063cd68d-8a29-41c2-a200-400c5862f5de POINT 1537, 488130.0, 5063750.0 ts_7 no_hed164
 #GMSCOMMENT 063cd68d-8a29-41c2-a200-400c5862f5de POINT 1537, 488130.0, 5063750.0 ts_8 no_hed165
 #GMSCOMMENT 063cd68d-8a29-41c2-a200-400c5862f5de POINT 1537, 488130.0, 5063750.0 ts_9 no_hed166
 #GMSCOMMENT 063cd68d-8a29-41c2-a200-400c5862f5de POINT 1537, 488130.0, 5063750.0 ts_10 no_hed167
 #GMSCOMMENT 063cd68d-8a29-41c2-a200-400c5862f5de POINT 1537, 488130.0, 5063750.0 ts_11 no_hed168
 #GMSCOMMENT 063cd68d-8a29-41c2-a200-400c5862f5de POINT 1537, 488130.0, 5063750.0 ts_12 no_hed169
 #GMSCOMMENT 063cd68d-8a29-41c2-a200-400c5862f5de POINT 1537, 488130.0, 5063750.0 ts_13 no_hed170
 #GMSCOMMENT 063cd68d-8a29-41c2-a200-400c5862f5de POINT 1537, 488130.0, 5063750.0 ts_14 no_hed171
 #GMSCOMMENT 063cd68d-8a29-41c2-a200-400c5862f5de POINT 1537, 488130.0, 5063750.0 ts_15 no_hed172
 #GMSCOMMENT 063cd68d-8a29-41c2-a200-400c5862f5de POINT 1537, 488130.0, 5063750.0 ts_16 no_hed173
 #GMSCOMMENT 063cd68d-8a29-41c2-a200-400c5862f5de POINT 1537, 488130.0, 5063750.0 ts_17 no_hed174
 #GMSCOMMENT 063cd68d-8a29-41c2-a200-400c5862f5de POINT 1537, 488130.0, 5063750.0 ts_18 no_hed175
 #GMSCOMMENT 063cd68d-8a29-41c2-a200-400c5862f5de POINT 1537, 488130.0, 5063750.0 ts_19 no_hed176
 #GMSCOMMENT 063cd68d-8a29-41c2-a200-400c5862f5de POINT 1537, 488130.0, 5063750.0 ts_20 no_hed177
 #GMSCOMMENT 063cd68d-8a29-41c2-a200-400c5862f5de POINT 1537, 488130.0, 5063750.0 ts_21 no_hed178
 #GMSCOMMENT 063cd68d-8a29-41c2-a200-400c5862f5de POINT 1537, 488130.0, 5063750.0 ts_22 no_hed179
 #GMSCOMMENT 063cd68d-8a29-41c2-a200-400c5862f5de POINT 1537, 488130.0, 5063750.0 ts_23 no_hed180
 #GMSCOMMENT 063cd68d-8a29-41c2-a200-400c5862f5de POINT 1537, 488130.0, 5063750.0 ts_24 no_hed181
 #GMSCOMMENT 063cd68d-8a29-41c2-a200-400c5862f5de POINT 1537, 488130.0, 5063750.0 ts_25 no_hed182
 #GMSCOMMENT 063cd68d-8a29-41c2-a200-400c5862f5de POINT 1537, 488130.0, 5063750.0 ts_26 no_hed183
 #GMSCOMMENT 063cd68d-8a29-41c2-a200-400c5862f5de POINT 1537, 488130.0, 5063750.0 ts_27 no_hed184
 #GMSCOMMENT 063cd68d-8a29-41c2-a200-400c5862f5de POINT 1537, 488130.0, 5063750.0 ts_28 no_hed185
 #GMSCOMMENT 063cd68d-8a29-41c2-a200-400c5862f5de POINT 1537, 488130.0, 5063750.0 ts_29 no_hed186
 #GMSCOMMENT 063cd68d-8a29-41c2-a200-400c5862f5de POINT 1537, 488130.0, 5063750.0 ts_30 no_hed187
 #GMSCOMMENT 063cd68d-8a29-41c2-a200-400c5862f5de POINT 1537, 488130.0, 5063750.0 ts_31 no_hed188
 #GMSCOMMENT 063cd68d-8a29-41c2-a200-400c5862f5de POINT 1537, 488130.0, 5063750.0 ts_32 no_hed189
 #GMSCOMMENT 063cd68d-8a29-41c2-a200-400c5862f5de POINT 1537, 488130.0, 5063750.0 ts_33 no_hed190
 #GMSCOMMENT 063cd68d-8a29-41c2-a200-400c5862f5de POINT 1537, 488130.0, 5063750.0 ts_34 no_hed191
 #GMSCOMMENT 063cd68d-8a29-41c2-a200-400c5862f5de POINT 1537, 488130.0, 5063750.0 ts_35 no_hed192
 #GMSCOMMENT 063cd68d-8a29-41c2-a200-400c5862f5de POINT 1538, 479560.0, 5051400.0 43862.0 hed193
 #GMSCOMMENT 063cd68d-8a29-41c2-a200-400c5862f5de POINT 1538, 479560.0, 5051400.0 43891.0 hed194
 #GMSCOMMENT 063cd68d-8a29-41c2-a200-400c5862f5de POINT 1538, 479560.0, 5051400.0 43922.0 hed195
 #GMSCOMMENT 063cd68d-8a29-41c2-a200-400c5862f5de POINT 1538, 479560.0, 5051400.0 43952.0 hed196
 #GMSCOMMENT 063cd68d-8a29-41c2-a200-400c5862f5de POINT 1538, 479560.0, 5051400.0 43983.0 hed197
 #GMSCOMMENT 063cd68d-8a29-41c2-a200-400c5862f5de POINT 1538, 479560.0, 5051400.0 44013.0 hed198
 #GMSCOMMENT 063cd68d-8a29-41c2-a200-400c5862f5de POINT 1538, 479560.0, 5051400.0 44044.0 hed199
 #GMSCOMMENT 063cd68d-8a29-41c2-a200-400c5862f5de POINT 1538, 479560.0, 5051400.0 44075.0 hed200
 #GMSCOMMENT 063cd68d-8a29-41c2-a200-400c5862f5de POINT 1538, 479560.0, 5051400.0 44105.0 hed201
 #GMSCOMMENT 063cd68d-8a29-41c2-a200-400c5862f5de POINT 1538, 479560.0, 5051400.0 44136.0 hed202
 #GMSCOMMENT 063cd68d-8a29-41c2-a200-400c5862f5de POINT 1538, 479560.0, 5051400.0 44166.0 hed203
 #GMSCOMMENT 063cd68d-8a29-41c2-a200-400c5862f5de POINT 1538, 479560.0, 5051400.0 44197.0 hed204
 #GMSCOMMENT 063cd68d-8a29-41c2-a200-400c5862f5de POINT 1538, 479560.0, 5051400.0 ts_0 no_hed205
 #GMSCOMMENT 063cd68d-8a29-41c2-a200-400c5862f5de POINT 1538, 479560.0, 5051400.0 ts_1 no_hed206
 #GMSCOMMENT 063cd68d-8a29-41c2-a200-400c5862f5de POINT 1538, 479560.0, 5051400.0 ts_2 no_hed207
 #GMSCOMMENT 063cd68d-8a29-41c2-a200-400c5862f5de POINT 1538, 479560.0, 5051400.0 ts_3 no_hed208
 #GMSCOMMENT 063cd68d-8a29-41c2-a200-400c5862f5de POINT 1538, 479560.0, 5051400.0 ts_4 no_hed209
 #GMSCOMMENT 063cd68d-8a29-41c2-a200-400c5862f5de POINT 1538, 479560.0, 5051400.0 ts_5 no_hed210
 #GMSCOMMENT 063cd68d-8a29-41c2-a200-400c5862f5de POINT 1538, 479560.0, 5051400.0 ts_6 no_hed211
 #GMSCOMMENT 063cd68d-8a29-41c2-a200-400c5862f5de POINT 1538, 479560.0, 5051400.0 ts_7 no_hed212
 #GMSCOMMENT 063cd68d-8a29-41c2-a200-400c5862f5de POINT 1538, 479560.0, 5051400.0 ts_8 no_hed213
 #GMSCOMMENT 063cd68d-8a29-41c2-a200-400c5862f5de POINT 1538, 479560.0, 5051400.0 ts_9 no_hed214
 #GMSCOMMENT 063cd68d-8a29-41c2-a200-400c5862f5de POINT 1538, 479560.0, 5051400.0 ts_10 no_hed215
 #GMSCOMMENT 063cd68d-8a29-41c2-a200-400c5862f5de POINT 1538, 479560.0, 5051400.0 ts_11 no_hed216
 #GMSCOMMENT 063cd68d-8a29-41c2-a200-400c5862f5de POINT 1538, 479560.0, 5051400.0 ts_12 no_hed217
 #GMSCOMMENT 063cd68d-8a29-41c2-a200-400c5862f5de POINT 1538, 479560.0, 5051400.0 ts_13 no_hed218
 #GMSCOMMENT 063cd68d-8a29-41c2-a200-400c5862f5de POINT 1538, 479560.0, 5051400.0 ts_14 no_hed219
 #GMSCOMMENT 063cd68d-8a29-41c2-a200-400c5862f5de POINT 1538, 479560.0, 5051400.0 ts_15 no_hed220
 #GMSCOMMENT 063cd68d-8a29-41c2-a200-400c5862f5de POINT 1538, 479560.0, 5051400.0 ts_16 no_hed221
 #GMSCOMMENT 063cd68d-8a29-41c2-a200-400c5862f5de POINT 1538, 479560.0, 5051400.0 ts_17 no_hed222
 #GMSCOMMENT 063cd68d-8a29-41c2-a200-400c5862f5de POINT 1538, 479560.0, 5051400.0 ts_18 no_hed223
 #GMSCOMMENT 063cd68d-8a29-41c2-a200-400c5862f5de POINT 1538, 479560.0, 5051400.0 ts_19 no_hed224
 #GMSCOMMENT 063cd68d-8a29-41c2-a200-400c5862f5de POINT 1538, 479560.0, 5051400.0 ts_20 no_hed225
 #GMSCOMMENT 063cd68d-8a29-41c2-a200-400c5862f5de POINT 1538, 479560.0, 5051400.0 ts_21 no_hed226
 #GMSCOMMENT 063cd68d-8a29-41c2-a200-400c5862f5de POINT 1538, 479560.0, 5051400.0 ts_22 no_hed227
 #GMSCOMMENT 063cd68d-8a29-41c2-a200-400c5862f5de POINT 1538, 479560.0, 5051400.0 ts_23 no_hed228
 #GMSCOMMENT 063cd68d-8a29-41c2-a200-400c5862f5de POINT 1538, 479560.0, 5051400.0 ts_24 no_hed229
 #GMSCOMMENT 063cd68d-8a29-41c2-a200-400c5862f5de POINT 1538, 479560.0, 5051400.0 ts_25 no_hed230
 #GMSCOMMENT 063cd68d-8a29-41c2-a200-400c5862f5de POINT 1538, 479560.0, 5051400.0 ts_26 no_hed231
 #GMSCOMMENT 063cd68d-8a29-41c2-a200-400c5862f5de POINT 1538, 479560.0, 5051400.0 ts_27 no_hed232
 #GMSCOMMENT 063cd68d-8a29-41c2-a200-400c5862f5de POINT 1538, 479560.0, 5051400.0 ts_28 no_hed233
 #GMSCOMMENT 063cd68d-8a29-41c2-a200-400c5862f5de POINT 1538, 479560.0, 5051400.0 ts_29 no_hed234
 #GMSCOMMENT 063cd68d-8a29-41c2-a200-400c5862f5de POINT 1538, 479560.0, 5051400.0 ts_30 no_hed235
 #GMSCOMMENT 063cd68d-8a29-41c2-a200-400c5862f5de POINT 1538, 479560.0, 5051400.0 ts_31 no_hed236
 #GMSCOMMENT 063cd68d-8a29-41c2-a200-400c5862f5de POINT 1538, 479560.0, 5051400.0 ts_32 no_hed237
 #GMSCOMMENT 063cd68d-8a29-41c2-a200-400c5862f5de POINT 1538, 479560.0, 5051400.0 ts_33 no_hed238
 #GMSCOMMENT 063cd68d-8a29-41c2-a200-400c5862f5de POINT 1538, 479560.0, 5051400.0 ts_34 no_hed239
 #GMSCOMMENT 063cd68d-8a29-41c2-a200-400c5862f5de POINT 1538, 479560.0, 5051400.0 ts_35 no_hed240
 #GMSCOMMENT 063cd68d-8a29-41c2-a200-400c5862f5de POINT 1539, 479760.0, 5041140.0 43862.0 hed241
 #GMSCOMMENT 063cd68d-8a29-41c2-a200-400c5862f5de POINT 1539, 479760.0, 5041140.0 43891.0 hed242
 #GMSCOMMENT 063cd68d-8a29-41c2-a200-400c5862f5de POINT 1539, 479760.0, 5041140.0 43922.0 hed243
 #GMSCOMMENT 063cd68d-8a29-41c2-a200-400c5862f5de POINT 1539, 479760.0, 5041140.0 43952.0 hed244
 #GMSCOMMENT 063cd68d-8a29-41c2-a200-400c5862f5de POINT 1539, 479760.0, 5041140.0 43983.0 hed245
 #GMSCOMMENT 063cd68d-8a29-41c2-a200-400c5862f5de POINT 1539, 479760.0, 5041140.0 44013.0 hed246
 #GMSCOMMENT 063cd68d-8a29-41c2-a200-400c5862f5de POINT 1539, 479760.0, 5041140.0 44044.0 hed247
 #GMSCOMMENT 063cd68d-8a29-41c2-a200-400c5862f5de POINT 1539, 479760.0, 5041140.0 44075.0 hed248